/*---------------------------------------------------------------------------*\
| =========                 |                                                 |
| \\      /  F ield         | OpenFOAM: The Open Source CFD Toolbox           |
|  \\    /   O peration     | Version:  2512                                  |
|   \\  /    A nd           | Website:  www.openfoam.com                      |
|    \\/     M anipulation  |                                                 |
\*---------------------------------------------------------------------------*/
Build  : 3a9ac426ea-20260109 OPENFOAM=2512 version=v2512
Arch   : "LSB;label=32;scalar=64"
Exec   : topoSet
Date   : Jan 20 2026
Time   : 15:05:04
Host   : DESKTOP-U4MQDU3
PID    : 1446951
I/O    : uncollated
Case   : /home/wywlxy/openfoam_0120_eraseTun/openfoam/test_case
nProcs : 1
trapFpe: Floating point exception trapping enabled (FOAM_SIGFPE).
memory pool : not available
fileModificationChecking : Monitoring run-time modified files using timeStampMaster (fileModificationSkew 5, maxFileModificationPolls 20)
allowSystemOperations : Allowing user-supplied system call operations

// * * * * * * * * * * * * * * * * * * * * * * * * * * * * * * * * * * * * * //
Create time

Create polyMesh for time = 0

Reading topoSetDict

Time = 0
    mesh not changed.
Created cellSet heaterCellSet
    Applying source boxToCell
    Adding cells with centre within boxes 1((-0.01001 0 -100) (0.01001 0.00999 100))
    cellSet heaterCellSet now size 40
Read set cellSet heaterCellSet size:40
    Applying source boxToCell
    Adding cells with centre within boxes 1((-0.01001 -100 -0.01001) (0.01001 0.00999 0.01001))
    cellSet heaterCellSet now size 80
Created cellZoneSet heater
    Applying source setToCellZone
    Adding all cells from cell set: heaterCellSet ...
    cellZoneSet heater now size 80
Created cellSet leftSolidCellSet
    Applying source boxToCell
    Adding cells with centre within boxes 1((-100 0 -100) (-0.01001 0.00999 100))
    cellSet leftSolidCellSet now size 130
Created cellZoneSet leftSolid
    Applying source setToCellZone
    Adding all cells from cell set: leftSolidCellSet ...
    cellZoneSet leftSolid now size 130
Created cellSet rightSolidCellSet
    Applying source boxToCell
    Adding cells with centre within boxes 1((0.01001 0 -100) (100 0.00999 100))
    cellSet rightSolidCellSet now size 130
Created cellZoneSet rightSolid
    Applying source setToCellZone
    Adding all cells from cell set: rightSolidCellSet ...
    cellZoneSet rightSolid now size 130
Created cellSet topAirCellSet
    Applying source boxToCell
    Adding cells with centre within boxes 1((-100 0.00999 -100) (100 100 100))
    cellSet topAirCellSet now size 1200
Created cellZoneSet topAir
    Applying source setToCellZone
    Adding all cells from cell set: topAirCellSet ...
    cellZoneSet topAir now size 1200
Created cellSet bottomWaterCellSet
    Applying source cellToCell
    Adding all elements of cell sets: (heaterCellSet)
    cellSet bottomWaterCellSet now size 80
Read set cellSet bottomWaterCellSet size:80
    Applying source cellToCell
    Adding all elements of cell sets: (leftSolidCellSet)
    cellSet bottomWaterCellSet now size 210
Read set cellSet bottomWaterCellSet size:210
    Applying source cellToCell
    Adding all elements of cell sets: (rightSolidCellSet)
    cellSet bottomWaterCellSet now size 340
Read set cellSet bottomWaterCellSet size:340
    Applying source cellToCell
    Adding all elements of cell sets: (topAirCellSet)
    cellSet bottomWaterCellSet now size 1540
Read set cellSet bottomWaterCellSet size:1540
    Inverting cellSet
    cellSet bottomWaterCellSet now size 1460
Created cellZoneSet bottomWater
    Applying source setToCellZone
    Adding all cells from cell set: bottomWaterCellSet ...
    cellZoneSet bottomWater now size 1460

End

